Version 4
SHEET 1 880 680
WIRE 32 112 -112 112
WIRE 544 112 32 112
WIRE -112 128 -112 112
WIRE 736 128 608 128
WIRE 800 128 736 128
WIRE 544 144 528 144
WIRE 736 160 736 128
WIRE -384 240 -384 208
WIRE -112 240 -112 208
WIRE 528 272 528 144
WIRE 736 272 736 240
WIRE 736 272 528 272
WIRE 736 304 736 272
WIRE 736 400 736 384
FLAG 736 400 0
FLAG 800 128 Vout
FLAG -112 240 0
FLAG -384 240 0
FLAG -384 128 V+
FLAG 576 160 V+
FLAG 576 96 0
FLAG 32 192 0
SYMBOL res 752 256 R180
WINDOW 0 36 76 Left 2
WINDOW 3 36 40 Left 2
SYMATTR InstName R4
SYMATTR Value 47k
SYMBOL res 752 400 R180
WINDOW 0 36 76 Left 2
WINDOW 3 36 40 Left 2
SYMATTR InstName R5
SYMATTR Value 6.7k
SYMBOL OpAmps\\UniversalOpAmp2 576 128 M180
SYMATTR InstName U1
SYMBOL voltage -384 112 R0
WINDOW 123 0 0 Left 0
WINDOW 39 0 0 Left 0
SYMATTR InstName V1
SYMATTR Value 5
SYMBOL current -112 208 R180
WINDOW 0 24 80 Left 2
WINDOW 3 24 0 Left 2
WINDOW 123 0 0 Left 0
WINDOW 39 0 0 Left 0
SYMATTR InstName I1
SYMATTR Value PULSE(4m 20m 1n 100m 500m 1 1 1)
SYMBOL res 16 96 R0
SYMATTR InstName R1
SYMATTR Value 30
TEXT -416 424 Left 2 !;ac dec 100 1 10k
TEXT -418 444 Left 2 !.tran 1
