Version 4.1
SHEET 1 1232 680
WIRE -160 -80 -160 -96
WIRE 32 -80 32 -96
WIRE 528 -48 528 -80
WIRE 32 16 32 0
WIRE -160 32 -160 0
WIRE 320 48 272 48
WIRE 272 64 272 48
WIRE 528 64 528 32
WIRE 320 112 320 48
WIRE 176 128 96 128
WIRE 288 128 176 128
WIRE 480 144 352 144
WIRE 96 160 96 128
WIRE 288 160 224 160
WIRE 320 224 320 176
WIRE 96 272 96 240
WIRE 224 288 224 160
WIRE 528 288 528 160
WIRE 528 288 224 288
WIRE 528 304 528 288
WIRE 528 416 528 384
FLAG 528 416 0
FLAG 32 16 0
FLAG 32 -96 +12
FLAG -160 32 0
FLAG -160 -96 +5V
FLAG 320 224 +5V
FLAG 272 64 0
FLAG 528 -80 +12
FLAG 96 272 0
FLAG 176 128 Vin
SYMBOL OpAmps\\AD8047 320 208 M180
WINDOW 3 11 149 Left 2
SYMATTR InstName U1
SYMBOL res 512 288 R0
SYMATTR InstName R1
SYMATTR Value 2.5
SYMBOL voltage 32 -96 R0
WINDOW 123 0 0 Left 0
WINDOW 39 0 0 Left 0
SYMATTR InstName V1
SYMATTR Value 12
SYMBOL voltage -160 -96 R0
WINDOW 123 0 0 Left 0
WINDOW 39 0 0 Left 0
SYMATTR InstName V2
SYMATTR Value 5
SYMBOL voltage 96 144 R0
WINDOW 3 -156 198 Left 2
WINDOW 123 0 0 Left 0
WINDOW 39 0 0 Left 0
SYMATTR Value PULSE(0 2.5 0n 1 1n 1 2)
SYMATTR InstName V3
SYMBOL nmos 480 64 R0
SYMATTR InstName M1
SYMATTR Value BS170
SYMBOL res 512 -64 R0
SYMATTR InstName LOAD
SYMATTR Value 8
TEXT -192 440 Left 2 !.tran 1.2
