Version 4.1
SHEET 1 880 680
WIRE 48 -96 32 -96
WIRE 48 -80 48 -96
WIRE 48 -64 48 -80
WIRE 48 0 48 -16
WIRE 464 64 224 64
WIRE 576 64 528 64
WIRE -208 112 -208 64
WIRE 432 160 384 160
WIRE 704 160 704 144
WIRE 576 176 576 64
WIRE 576 176 496 176
WIRE 432 192 368 192
WIRE -208 208 -208 192
WIRE 224 208 224 64
WIRE 224 208 176 208
WIRE 240 208 224 208
WIRE 368 208 368 192
WIRE 368 208 320 208
WIRE 368 224 368 208
WIRE 704 256 704 240
WIRE 704 256 640 256
WIRE -80 304 -80 288
WIRE -208 320 -208 288
WIRE 368 320 368 288
WIRE 704 352 704 336
FLAG 368 320 0
FLAG 464 208 0
FLAG 464 144 v+
FLAG 384 160 v_inv
FLAG 640 256 v_inv
FLAG 576 176 v_out
FLAG 704 144 v_out
FLAG 704 352 0
FLAG -80 304 0
FLAG -80 208 v+
FLAG -208 320 0
FLAG 96 208 vin
FLAG -208 0 vin
FLAG 48 0 0
FLAG -48 -96 vin
SYMBOL res 192 192 R90
WINDOW 0 0 56 VBottom 2
WINDOW 3 32 56 VTop 2
SYMATTR InstName R1
SYMATTR Value 1k
SYMBOL res 336 192 R90
WINDOW 0 0 56 VBottom 2
WINDOW 3 32 56 VTop 2
SYMATTR InstName R2
SYMATTR Value 1k
SYMBOL cap 528 48 R90
WINDOW 0 0 32 VBottom 2
WINDOW 3 32 32 VTop 2
SYMATTR InstName C1
SYMATTR Value 0.1”
SYMBOL cap 384 288 R180
WINDOW 0 24 56 Left 2
WINDOW 3 24 8 Left 2
SYMATTR InstName C2
SYMATTR Value 0.1”
SYMBOL OpAmps\\UniversalOpAmp2 464 176 R0
SYMATTR InstName U1
SYMBOL res 688 144 R0
SYMATTR InstName R3
SYMATTR Value 47k
SYMBOL res 688 240 R0
SYMATTR InstName R4
SYMATTR Value 6.7k
SYMBOL voltage -80 192 R0
WINDOW 123 0 0 Left 0
WINDOW 39 0 0 Left 0
SYMATTR InstName V1
SYMATTR Value 5
SYMBOL voltage -208 192 R0
WINDOW 3 24 152 Left 2
WINDOW 123 24 124 Left 2
WINDOW 39 0 0 Left 0
SYMATTR InstName V2
SYMATTR Value SINE(0 0.5 100)
SYMBOL voltage -208 96 R0
WINDOW 123 0 0 Left 0
WINDOW 39 0 0 Left 0
SYMATTR InstName V3
SYMATTR Value SINE(0 50m 1.2k)
SYMBOL cap -224 0 R0
SYMATTR InstName C3
SYMATTR Value 1”
SYMBOL res 48 -112 R90
WINDOW 0 0 56 VBottom 2
WINDOW 3 32 56 VTop 2
SYMATTR InstName R5
SYMATTR Value 1k
SYMBOL cap 32 -80 R0
SYMATTR InstName C4
SYMATTR Value 0.1”
TEXT 96 80 Left 2 !.tran 2
