Version 4
SHEET 1 1168 680
WIRE 272 0 272 -64
WIRE 272 0 192 0
WIRE 400 0 272 0
WIRE 480 0 400 0
WIRE 192 16 192 0
WIRE 272 16 272 0
WIRE 864 16 864 0
WIRE 912 16 864 16
WIRE 400 32 400 0
WIRE 480 32 480 0
WIRE 480 128 480 112
WIRE 640 128 480 128
WIRE 864 128 864 16
WIRE 864 128 800 128
WIRE 640 144 640 128
WIRE 672 144 640 144
WIRE 880 160 800 160
WIRE 672 176 640 176
WIRE 880 176 880 160
WIRE 848 192 800 192
WIRE 848 208 848 192
WIRE 992 208 848 208
WIRE 1104 208 1072 208
WIRE 128 224 80 224
WIRE 272 240 272 96
WIRE 272 240 192 240
WIRE 400 240 400 96
WIRE 400 240 272 240
WIRE 480 240 480 208
WIRE 480 240 400 240
WIRE 640 240 640 176
WIRE 640 240 480 240
WIRE 1104 240 1104 208
WIRE 0 256 0 224
WIRE 128 256 96 256
WIRE 96 304 96 256
FLAG 192 96 0
FLAG 96 304 0
FLAG 0 336 0
FLAG -112 256 0
FLAG -224 256 0
FLAG -352 256 0
FLAG -352 176 Vg
FLAG 0 224 Vg
FLAG 272 -64 Vd
FLAG -224 176 Vd
FLAG -112 176 VDD
FLAG 864 0 VDD
FLAG 880 176 0
FLAG 912 80 0
FLAG 1104 304 0
FLAG 1104 208 Vsen
SYMBOL AutoGenerated\\irf3708 160 240 M0
SYMATTR InstName U1
SYMBOL schottky 416 96 R180
WINDOW 0 24 64 Left 2
WINDOW 3 24 0 Left 2
SYMATTR InstName D1
SYMBOL res 256 0 R0
SYMATTR InstName R1
SYMATTR Value 1k
SYMBOL res 176 0 R0
SYMATTR InstName R2
SYMATTR Value 1k
SYMBOL res 464 16 R0
SYMATTR InstName RL
SYMATTR Value 10
SYMBOL res 464 112 R0
SYMATTR InstName R_shunt
SYMATTR Value 0.01
SYMBOL AutoGenerated\\INA180A4 736 160 R0
SYMATTR InstName U2
SYMBOL res 96 208 R90
WINDOW 0 0 56 VBottom 2
WINDOW 3 32 56 VTop 2
SYMATTR InstName R3
SYMATTR Value 1k
SYMBOL res -16 240 R0
SYMATTR InstName R4
SYMATTR Value 10k
SYMBOL voltage -352 160 R0
WINDOW 123 0 0 Left 0
WINDOW 39 0 0 Left 0
SYMATTR InstName V1
SYMATTR Value {VG}
SYMBOL voltage -224 160 R0
WINDOW 123 0 0 Left 0
WINDOW 39 0 0 Left 0
SYMATTR InstName V2
SYMATTR Value 12
SYMBOL voltage -112 160 R0
WINDOW 123 0 0 Left 0
WINDOW 39 0 0 Left 0
SYMATTR InstName V3
SYMATTR Value 5
SYMBOL cap 896 16 R0
SYMATTR InstName C1
SYMATTR Value 0.1µ
SYMBOL res 1088 192 R90
WINDOW 0 0 56 VBottom 2
WINDOW 3 32 56 VTop 2
SYMATTR InstName R5
SYMATTR Value 1k
SYMBOL cap 1088 240 R0
SYMATTR InstName C2
SYMATTR Value 0.1µ
TEXT -386 360 Left 2 !.op
TEXT -176 48 Left 2 !.step param VG 0 5 1
