Version 4
SHEET 1 1760 680
WIRE -576 -320 -768 -320
WIRE -576 -112 -576 -320
WIRE -576 -112 -656 -112
WIRE -512 -112 -576 -112
WIRE -656 -64 -656 -112
WIRE -512 -64 -512 -112
WIRE 960 0 752 0
WIRE 1088 0 1024 0
WIRE -768 64 -768 -320
WIRE -656 64 -656 16
WIRE -608 64 -656 64
WIRE -512 64 -512 16
WIRE -464 64 -512 64
WIRE 64 64 -32 64
WIRE -768 80 -768 64
WIRE -32 80 -32 64
WIRE -656 96 -656 64
WIRE -512 112 -512 64
WIRE 656 128 624 128
WIRE 752 128 752 0
WIRE 752 128 736 128
WIRE 768 128 752 128
WIRE 880 128 848 128
WIRE 976 128 880 128
WIRE 880 144 880 128
WIRE 1088 144 1088 0
WIRE 1088 144 1040 144
WIRE 64 160 -32 160
WIRE 976 160 944 160
WIRE -768 176 -768 160
WIRE -656 224 -656 176
WIRE -592 224 -656 224
WIRE -512 224 -512 192
WIRE -512 224 -592 224
WIRE 880 224 880 208
WIRE 432 240 384 240
WIRE 176 256 176 176
WIRE 288 256 176 256
WIRE 320 256 288 256
WIRE 416 272 384 272
WIRE 944 272 944 160
WIRE 1088 272 1088 144
WIRE 1088 272 944 272
WIRE 432 288 432 240
WIRE 480 288 480 256
WIRE 480 288 432 288
WIRE 480 304 480 288
WIRE -768 336 -768 176
WIRE -592 336 -592 224
WIRE -592 336 -768 336
WIRE 288 368 288 256
WIRE 416 368 416 272
WIRE 416 368 288 368
FLAG 96 208 0
FLAG 368 -16 0
FLAG 368 -96 VDD
FLAG 96 16 VDD
FLAG 480 176 VDD
FLAG 480 384 0
FLAG 352 288 VDD
FLAG 352 224 0
FLAG 240 112 Vx
FLAG 624 128 Vx
FLAG 880 224 0
FLAG 1008 176 VDD
FLAG 1008 112 0
FLAG 1088 144 Vout
FLAG -768 336 0
FLAG -768 64 Exc+
FLAG -768 176 Exc-
FLAG -464 64 Sig+
FLAG 64 32 Sig+
FLAG -608 64 Sig-
FLAG 64 192 Sig-
SYMBOL OpAmps\\AD8226 96 112 R0
SYMATTR InstName U1
SYMBOL res -48 64 R0
SYMATTR InstName R1
SYMATTR Value 200
SYMBOL voltage 368 -112 R0
WINDOW 123 0 0 Left 0
WINDOW 39 0 0 Left 0
SYMATTR InstName V1
SYMATTR Value 5
SYMBOL OpAmps\\UniversalOpAmp1 352 256 R180
SYMATTR InstName U2
SYMBOL res 464 160 R0
SYMATTR InstName R2
SYMATTR Value 10k
SYMBOL res 464 288 R0
SYMATTR InstName R3
SYMATTR Value 1
SYMBOL OpAmps\\UniversalOpAmp1 1008 144 M180
SYMATTR InstName U3
SYMBOL res 752 112 R90
WINDOW 0 0 56 VBottom 2
WINDOW 3 32 56 VTop 2
SYMATTR InstName R4
SYMATTR Value 1k
SYMBOL res 864 112 R90
WINDOW 0 0 56 VBottom 2
WINDOW 3 32 56 VTop 2
SYMATTR InstName R5
SYMATTR Value 1k
SYMBOL cap 864 144 R0
SYMATTR InstName C1
SYMATTR Value 0.1µ
SYMBOL cap 1024 -16 R90
WINDOW 0 0 32 VBottom 2
WINDOW 3 32 32 VTop 2
SYMATTR InstName C2
SYMATTR Value 0.1µ
SYMBOL voltage -768 64 R0
WINDOW 123 0 0 Left 0
WINDOW 39 0 0 Left 0
SYMATTR InstName V2
SYMATTR Value 5
SYMBOL res -672 -80 R0
SYMATTR InstName R6
SYMATTR Value {Ro+Rf}
SYMBOL res -528 -80 R0
SYMATTR InstName R7
SYMATTR Value {Ro-Rf}
SYMBOL res -672 80 R0
SYMATTR InstName R9
SYMATTR Value {Ro-Rf}
SYMBOL res -528 96 R0
SYMATTR InstName R10
SYMATTR Value {Ro+Rf}
TEXT -1480 48 Left 2 !.param lbf_app=3000 lbf_max=3000
TEXT -1480 80 Left 2 !.param Vfsos=3m
TEXT -1480 112 Left 2 !.param Ro=350
TEXT -1480 144 Left 2 !.param Rf={Vfsos*(lbf_app/lbf_max)*(Ro)}
TEXT -1480 176 Left 2 !.step param lbf_app 0 3000 1000
TEXT -1632 432 Left 2 ;Credits for unamplified load cell model:https://forum.digikey.com/t/analog-bits-modeling-a-load-cell-in-spice/13343
TEXT -1624 464 Left 2 ;Load cell specificatons: https://prod-edam.honeywell.com/content/dam/honeywell-edam/sps/siot/en-au/products/test-and-measurement-products/load-cells/low-profile/model-41-series/documents/sps-siot-t-m-model-41-precision-load-cell-product-sheet-008609-3-en-ciid-149301.pdf
TEXT -1634 484 Left 2 !.op
